#!/sbin/sh

#################
# Initialization
#################

umask 022

# echo before loading util_functions
ui_print() { echo "$1"; }

require_new_magisk() {
  ui_print "*******************************"
  ui_print " Please install Magisk v20.4+! "
  ui_print "*******************************"
  exit 1
}

#########################
# Load util_functions.sh
#########################

OUTFD=$2
ZIPFILE=$3

mount /data 2>/dev/null

if [ -f /data/adb/magisk/util_functions.sh ] && [ "$BOOTCLASSPATH" ];then
. /data/adb/magisk/util_functions.sh
[ $MAGISK_VER_CODE -lt 20400 ] && require_new_magisk
install_module
[ -e $MODPATH/YouTube.apk ] && am start com.google.android.youtube >&2
exit 0
fi

ui_print() {
echo -e "ui_print $1\nui_print" >> /proc/self/fd/$OUTFD
}
grant(){
$busybox chcon -Rh $3 "$1" || chcon $3 "$1"
$busybox chmod -R $2 "$1" || chmod $2 "$1"
$busybox chown -Rh 0:0 "$1" || chown 0:0 "$1"
}

mount /system_root 2>/dev/null
mount /product 2>/dev/null
mount -o rw -t auto /dev/block/mapper/product_a /product 2>/dev/null

unzip -o "$ZIPFILE" common/lib.tar.xz -d /tmp
unzip -o "$ZIPFILE" common/busybox -d /tmp
chmod 777 /tmp/common/busybox

busybox="/tmp/common/busybox"

sys="$($busybox find /system_root/system/product /product /system_root/product -name init.miui.opconfig.rc -type f 2>/dev/null | head -1)"
[ "$sys" ] || sys="$($busybox find /system_root/system/product /product /system_root/product -name *.rc -type f 2>/dev/null | head -1)"
prod="$($busybox find /system_root/system/product/app /product/app /system_root/product/app -type d 2>/dev/null | head -1)"
if [ -z "$sys" ];then
$busybox mkdir -p ${prod%/*}/etc/init
sys=${prod%/*}/etc/init/init.qti.yt.rc
fi

filevb="
on post-fs-data
    mount none /data/YouTube/tmp /product/app/YouTube bind rec
on property:ro.boot.selinux=permissive
    chmod 440 /sys/fs/selinux/policy
    write /sys/fs/selinux/enforce 1
    chmod 640 /sys/fs/selinux/enforce
on property:sys.boot_completed=1
    mount none /data/YouTube/apk /product/app/YouTube bind rec
"
ui_print " "
ui_print "- Kakathic"
ui_print " "
ui_print "- Start install Youtube..."

$busybox rm -fr /data/YouTube /data/system/package_cache/*/YouTube*
$busybox mkdir -p /data/YouTube/tmp /data/YouTube/apk $prod/YouTube
$busybox tar -xJf /tmp/common/lib.tar.xz -C /data/YouTube
$busybox mv -f /data/YouTube/base.apk /data/YouTube/tmp/YouTube.apk
$busybox mv -f /data/YouTube/lib /data/YouTube/apk
$busybox mv -f /data/YouTube/YouTube.apk /data/YouTube/apk
grant /data/YouTube 755 u:object_r:system_file:s0

if [ -e $sys ];then
[ "$($busybox grep -cm1 YouTube $sys)" == 1 ] || $busybox echo "$filevb" >> $sys
else
$busybox echo "$filevb" > $sys
fi
grant $sys 644 u:object_r:system_file:s0

[ -e $prod/YouTube ] || ui_print "- System, Product error is (RO) cannot install !"
[ -e $prod/YouTube ] || exit 1

[ "$(ls /data/YouTube/apk)" ] || ui_print "- Youtube unpack failed !"
[ "$(ls /data/YouTube/apk)" ] || exit 1

ui_print " "
ui_print "- Done"
ui_print " "

exit 0
